---- qbsp / ericw-tools 2.0.0-alpha8-64-gbbe39c7c ----

--- Options Summary ---
    "nocolor" was set to "1" (from command line)

Input file: C:\quake-leveldesign-starterkit-20241231-windows\level-editor\Random-compile-compile.map
Output file: C:\quake-leveldesign-starterkit-20241231-windows\level-editor\Random-compile.bsp

INFO: using built-in palette.
WARNING: No wad or _wad key exists in the worldmodel
     2 entities
     2 unique textures
     7 texinfos
    24 unique planes

INFO: world extents calculated to 616 units
     6 brushes
    36 sides

            0 texture frames added
WARNING: unable to find texture skip
WARNING: unable to find texture __TB_empty
Processing hull 0...
    6 SOLID brushes
    6 brushes total
    36 visible sides
INFO: calculating BSP for 6 brushes with 36 sides
     6 brushes
    36 visible faces
    24 nodes
    24 expensive split nodes
    25 leaves
    19 EMPTY leafs
     6 SOLID leafs
    25 leafs total
    8 max tree height
    6 avg tree height
    114 tree portals
    18 outside leaves
    0 detail filled leafs
     6 brushes
     6 visible faces
    30 non-visible faces
    24 nodes
    18 non-visible nodes
    24 expensive split nodes
    25 leaves
    19 EMPTY leafs
     6 SOLID leafs
    25 leafs total
    8 max tree height
    6 avg tree height
    114 tree portals
    18 outside leaves
    0 detail filled leafs
    114 tree portals
    6 sides visible
    6 makefaces
    18 nodes pruned
    1 player-occupiable leaves
    1 clusters of leaves
    6 SOLID leafs
    1 EMPTY leafs
    7 leafs total
    7 max tree height
    4 avg tree height
     6 faces optimized through MWT
    12 triangles computed from MWT
    12 edges
     6 faces
Processing hull 1...
Processing hull 2...
Writing Random-compile.bsp as Quake BSP bsp29
Wrote Random-compile.bsp

count   lump name    byte size 
      1 models               64
     17 planes              340
      8 vertexes             96
      6 nodes               144
      6 texinfos            240
      6 faces               120
     12 clipnodes            96
      2 leafs                56
      6 marksurfaces         12
     13 edges                52
     24 surfedges            96
      2 textures             12
        lightdata             0
        visdata               0
        entdata             107

0.012s seconds elapsed


